final year project/energy function/TEF_Framework/TEF_NE/MatlabX/ieee39buscls1.raw
@!IC, SBASE,REV,XFRRAT,NXFRAT,BASFRQ
0,   100.00, 34,     0,     1, 50.00     / PSS(R)E-34.0    FRI, JUL 07 2017  18:22


GENERAL, THRSHZ=0.0001, PQBRAK=0.7, BLOWUP=5.0
GAUSS, ITMX=100, ACCP=1.6, ACCQ=1.6, ACCM=1.0, TOL=0.0001
NEWTON, ITMXN=20, ACCN=1.0, TOLN=0.1, VCTOLQ=0.1, VCTOLV=0.00001, DVLIM=0.99, NDVFCT=0.99
ADJUST, ADJTHR=0.005, ACCTAP=1.0, TAPLIM=0.05, SWVBND=100.0, MXTPSS=99, MXSWIM=10
TYSL, ITMXTY=20, ACCTY=1.0, TOLTY=0.00001
RATING, 1, "RATE1 ", "RATING SET 1                    "
RATING, 2, "RATE2 ", "RATING SET 2                    "
RATING, 3, "RATE3 ", "RATING SET 3                    "
RATING, 4, "RATE4 ", "RATING SET 4                    "
RATING, 5, "RATE5 ", "RATING SET 5                    "
RATING, 6, "RATE6 ", "RATING SET 6                    "
RATING, 7, "RATE7 ", "RATING SET 7                    "
RATING, 8, "RATE8 ", "RATING SET 8                    "
RATING, 9, "RATE9 ", "RATING SET 9                    "
RATING,10, "RATE10", "RATING SET 10                   "
RATING,11, "RATE11", "RATING SET 11                   "
RATING,12, "RATE12", "RATING SET 12                   "
0 / END OF SYSTEM-WIDE DATA, BEGIN BUS DATA
@!   I,'NAME        ', BASKV, IDE,AREA,ZONE,OWNER, VM,        VA,    NVHI,   NVLO,   EVHI,   EVLO
     1,'BUS1        ', 230.0000,1,   1,   1,   1,1.00000,   0.0000,1.10000,0.90000,1.10000,0.90000
     2,'BUS2        ', 230.0000,1,   1,   1,   1,1.00000,   0.0000,1.10000,0.90000,1.10000,0.90000
     3,'BUS3        ', 230.0000,1,   1,   1,   1,1.00000,   0.0000,1.10000,0.90000,1.10000,0.90000
     4,'BUS4        ', 230.0000,1,   1,   1,   1,1.00000,   0.0000,1.10000,0.90000,1.10000,0.90000
     5,'BUS5        ', 230.0000,1,   1,   1,   1,1.00000,   0.0000,1.10000,0.90000,1.10000,0.90000
     6,'BUS 6       ', 230.0000,1,   1,   1,   1,1.00000,   0.0000,1.10000,0.90000,1.10000,0.90000
     7,'BUS7        ', 230.0000,1,   1,   1,   1,1.00000,   0.0000,1.10000,0.90000,1.10000,0.90000
     8,'BUS8        ', 230.0000,1,   1,   1,   1,1.00000,   0.0000,1.10000,0.90000,1.10000,0.90000
     9,'BUS9        ', 230.0000,1,   1,   1,   1,1.00000,   0.0000,1.10000,0.90000,1.10000,0.90000
    10,'BUS10       ', 230.0000,1,   1,   1,   1,1.00000,   0.0000,1.10000,0.90000,1.10000,0.90000
    11,'BUS11       ', 230.0000,1,   1,   1,   1,1.00000,   0.0000,1.10000,0.90000,1.10000,0.90000
    12,'BUS12       ', 230.0000,1,   1,   1,   1,1.00000,   0.0000,1.10000,0.90000,1.10000,0.90000
    13,'BUS13       ', 230.0000,1,   1,   1,   1,1.00000,   0.0000,1.10000,0.90000,1.10000,0.90000
    14,'BUS14       ', 230.0000,1,   1,   1,   1,1.00000,   0.0000,1.10000,0.90000,1.10000,0.90000
    15,'BUS15       ', 230.0000,1,   1,   1,   1,1.00000,   0.0000,1.10000,0.90000,1.10000,0.90000
    16,'BUS16       ', 230.0000,1,   1,   1,   1,1.00000,   0.0000,1.10000,0.90000,1.10000,0.90000
    17,'BUS17       ', 230.0000,1,   1,   1,   1,1.00000,   0.0000,1.10000,0.90000,1.10000,0.90000
    18,'BUS18       ', 230.0000,1,   1,   1,   1,1.00000,   0.0000,1.10000,0.90000,1.10000,0.90000
    19,'BUS19       ', 230.0000,1,   1,   1,   1,1.00000,   0.0000,1.10000,0.90000,1.10000,0.90000
    20,'BUS20       ', 230.0000,1,   1,   1,   1,1.00000,   0.0000,1.10000,0.90000,1.10000,0.90000
    21,'BUS21       ', 230.0000,1,   1,   1,   1,1.00000,   0.0000,1.10000,0.90000,1.10000,0.90000
    22,'BUS22       ', 230.0000,1,   1,   1,   1,1.00000,   0.0000,1.10000,0.90000,1.10000,0.90000
    23,'BUS23       ', 230.0000,1,   1,   1,   1,1.00000,   0.0000,1.10000,0.90000,1.10000,0.90000
    24,'BUS24       ', 230.0000,1,   1,   1,   1,1.00000,   0.0000,1.10000,0.90000,1.10000,0.90000
    25,'BUS25       ', 230.0000,1,   1,   1,   1,1.00000,   0.0000,1.10000,0.90000,1.10000,0.90000
    26,'BUS26       ', 230.0000,1,   1,   1,   1,1.00000,   0.0000,1.10000,0.90000,1.10000,0.90000
    27,'BUS27       ', 230.0000,1,   1,   1,   1,1.00000,   0.0000,1.10000,0.90000,1.10000,0.90000
    28,'BUS28       ', 230.0000,1,   1,   1,   1,1.00000,   0.0000,1.10000,0.90000,1.10000,0.90000
    29,'BUS29       ', 230.0000,1,   1,   1,   1,1.00000,   0.0000,1.10000,0.90000,1.10000,0.90000
    30,'GEN 10      ',  11.0000,2,   1,   1,   1,1.04750,   0.0000,1.10000,0.90000,1.10000,0.90000
    31,'GEN 2       ',  11.0000,3,   1,   1,   1,0.98200,   0.0000,1.10000,0.90000,1.10000,0.90000
    32,'GEN 3       ',  11.0000,2,   1,   1,   1,0.98310,   0.0000,1.10000,0.90000,1.10000,0.90000
    33,'GEN 4       ',  11.0000,2,   1,   1,   1,0.99720,   0.0000,1.10000,0.90000,1.10000,0.90000
    34,'GEN 5       ',  11.0000,2,   1,   1,   1,1.01230,   0.0000,1.10000,0.90000,1.10000,0.90000
    35,'GEN 6       ',  11.0000,2,   1,   1,   1,1.04930,   0.0000,1.10000,0.90000,1.10000,0.90000
    36,'GEN7        ',  11.0000,2,   1,   1,   1,1.06350,   0.0000,1.10000,0.90000,1.10000,0.90000
    37,'GEN 8       ',  11.0000,2,   1,   1,   1,1.02780,   0.0000,1.10000,0.90000,1.10000,0.90000
    38,'GEN 9       ',  11.0000,2,   1,   1,   1,1.02650,   0.0000,1.10000,0.90000,1.10000,0.90000
    39,'GEN 1       ', 230.0000,2,   1,   1,   1,1.03000,   0.0000,1.10000,0.90000,1.10000,0.90000
0 / END OF BUS DATA, BEGIN LOAD DATA
@!   I,'ID',STAT,AREA,ZONE,      PL,        QL,        IP,        IQ,        YP,        YQ, OWNER,SCALE,INTRPT,  DGENP,     DGENQ, DGENF
     1,'1 ',   1,   1,   1,     0.000,     0.000,     0.000,     0.000,     0.000,     0.000,   1,    1,  0,     0.000,     0.000,   0
     2,'1 ',   1,   1,   1,     0.000,     0.000,     0.000,     0.000,     0.000,     0.000,   1,    1,  0,     0.000,     0.000,   0
     3,'1 ',   1,   1,   1,   322.000,     2.400,     0.000,     0.000,     0.000,     0.000,   1,    1,  0,     0.000,     0.000,   0
     4,'1 ',   1,   1,   1,   500.000,   184.000,     0.000,     0.000,     0.000,     0.000,   1,    1,  0,     0.000,     0.000,   0
     5,'1 ',   1,   1,   1,     0.000,     0.000,     0.000,     0.000,     0.000,     0.000,   1,    1,  0,     0.000,     0.000,   0
     6,'1 ',   1,   1,   1,     0.000,     0.000,     0.000,     0.000,     0.000,     0.000,   1,    1,  0,     0.000,     0.000,   0
     7,'1 ',   1,   1,   1,   233.800,    84.000,     0.000,     0.000,     0.000,     0.000,   1,    1,  0,     0.000,     0.000,   0
     8,'1 ',   1,   1,   1,   522.000,   176.000,     0.000,     0.000,     0.000,     0.000,   1,    1,  0,     0.000,     0.000,   0
     9,'1 ',   1,   1,   1,     0.000,     0.000,     0.000,     0.000,     0.000,     0.000,   1,    1,  0,     0.000,     0.000,   0
    10,'1 ',   1,   1,   1,     0.000,     0.000,     0.000,     0.000,     0.000,     0.000,   1,    1,  0,     0.000,     0.000,   0
    11,'1 ',   1,   1,   1,     0.000,     0.000,     0.000,     0.000,     0.000,     0.000,   1,    1,  0,     0.000,     0.000,   0
    12,'1 ',   1,   1,   1,     7.500,    88.000,     0.000,     0.000,     0.000,     0.000,   1,    1,  0,     0.000,     0.000,   0
    13,'1 ',   1,   1,   1,     0.000,     0.000,     0.000,     0.000,     0.000,     0.000,   1,    1,  0,     0.000,     0.000,   0
    14,'1 ',   1,   1,   1,     0.000,     0.000,     0.000,     0.000,     0.000,     0.000,   1,    1,  0,     0.000,     0.000,   0
    15,'1 ',   1,   1,   1,   320.000,   153.000,     0.000,     0.000,     0.000,     0.000,   1,    1,  0,     0.000,     0.000,   0
    16,'1 ',   1,   1,   1,   329.300,    32.000,     0.000,     0.000,     0.000,     0.000,   1,    1,  0,     0.000,     0.000,   0
    17,'1 ',   1,   1,   1,     0.000,     0.000,     0.000,     0.000,     0.000,     0.000,   1,    1,  0,     0.000,     0.000,   0
    18,'1 ',   1,   1,   1,   158.000,    30.000,     0.000,     0.000,     0.000,     0.000,   1,    1,  0,     0.000,     0.000,   0
    19,'1 ',   1,   1,   1,     0.000,     0.000,     0.000,     0.000,     0.000,     0.000,   1,    1,  0,     0.000,     0.000,   0
    20,'1 ',   1,   1,   1,   628.000,   103.000,     0.000,     0.000,     0.000,     0.000,   1,    1,  0,     0.000,     0.000,   0
    21,'1 ',   1,   1,   1,   274.000,   115.000,     0.000,     0.000,     0.000,     0.000,   1,    1,  0,     0.000,     0.000,   0
    22,'1 ',   1,   1,   1,   200.000,     0.000,     0.000,     0.000,     0.000,     0.000,   1,    1,  0,     0.000,     0.000,   0
    23,'1 ',   1,   1,   1,   247.500,    84.600,     0.000,     0.000,     0.000,     0.000,   1,    1,  0,     0.000,     0.000,   0
    24,'1 ',   1,   1,   1,   308.600,   -92.000,     0.000,     0.000,     0.000,     0.000,   1,    1,  0,     0.000,     0.000,   0
    25,'1 ',   1,   1,   1,   224.000,    47.200,     0.000,     0.000,     0.000,     0.000,   1,    1,  0,     0.000,     0.000,   0
    26,'1 ',   1,   1,   1,   139.000,    17.000,     0.000,     0.000,     0.000,     0.000,   1,    1,  0,     0.000,     0.000,   0
    27,'1 ',   1,   1,   1,   281.000,    75.500,     0.000,     0.000,     0.000,     0.000,   1,    1,  0,     0.000,     0.000,   0
    28,'1 ',   1,   1,   1,   206.000,    27.600,     0.000,     0.000,     0.000,     0.000,   1,    1,  0,     0.000,     0.000,   0
    29,'1 ',   1,   1,   1,   283.500,    26.900,     0.000,     0.000,     0.000,     0.000,   1,    1,  0,     0.000,     0.000,   0
    30,'1 ',   1,   1,   1,     0.000,     0.000,     0.000,     0.000,     0.000,     0.000,   1,    1,  0,     0.000,     0.000,   0
    31,'1 ',   1,   1,   1,     9.200,     4.600,     0.000,     0.000,     0.000,     0.000,   1,    1,  0,     0.000,     0.000,   0
    32,'1 ',   1,   1,   1,     0.000,     0.000,     0.000,     0.000,     0.000,     0.000,   1,    1,  0,     0.000,     0.000,   0
    33,'1 ',   1,   1,   1,     0.000,     0.000,     0.000,     0.000,     0.000,     0.000,   1,    1,  0,     0.000,     0.000,   0
    34,'1 ',   1,   1,   1,     0.000,     0.000,     0.000,     0.000,     0.000,     0.000,   1,    1,  0,     0.000,     0.000,   0
    35,'1 ',   1,   1,   1,     0.000,     0.000,     0.000,     0.000,     0.000,     0.000,   1,    1,  0,     0.000,     0.000,   0
    36,'1 ',   1,   1,   1,     0.000,     0.000,     0.000,     0.000,     0.000,     0.000,   1,    1,  0,     0.000,     0.000,   0
    37,'1 ',   1,   1,   1,     0.000,     0.000,     0.000,     0.000,     0.000,     0.000,   1,    1,  0,     0.000,     0.000,   0
    38,'1 ',   1,   1,   1,     0.000,     0.000,     0.000,     0.000,     0.000,     0.000,   1,    1,  0,     0.000,     0.000,   0
    39,'1 ',   1,   1,   1,  1104.000,   250.000,     0.000,     0.000,     0.000,     0.000,   1,    1,  0,     0.000,     0.000,   0
0 / END OF LOAD DATA, BEGIN FIXED SHUNT DATA
@!   I,'ID',STATUS,  GL,        BL
0 / END OF FIXED SHUNT DATA, BEGIN GENERATOR DATA
@!   I,'ID',      PG,        QG,        QT,        QB,     VS,    IREG,     MBASE,     ZR,         ZX,         RT,         XT,     GTAP,STAT, RMPCT,      PT,        PB,    O1,    F1,  O2,    F2,  O3,    F3,  O4,    F4,WMOD,  WPF
    30,'1 ',   250.000,     0.000,  9999.000, -9999.000,1.04750,     0,   100.000, 0.00000E+0, 2.50000E-2, 0.00000E+0, 0.00000E+0,1.00000,1,  100.0,  9999.000, -9999.000,   1,1.0000
    31,'1 ',     0.000,     0.000,  9999.000, -9999.000,0.98200,     0,   100.000, 0.00000E+0, 5.00000E-2, 0.00000E+0, 0.00000E+0,1.00000,1,  100.0,   550.000,  -100.000,   1,1.0000
    32,'1 ',   650.000,     0.000,  9999.000, -9999.000,0.98310,     0,   100.000, 0.00000E+0, 4.50000E-2, 0.00000E+0, 0.00000E+0,1.00000,1,  100.0,  9999.000, -9999.000,   1,1.0000
    33,'1 ',   632.000,     0.000,  9999.000, -9999.000,0.99720,     0,   100.000, 0.00000E+0, 3.50000E-2, 0.00000E+0, 0.00000E+0,1.00000,1,  100.0,  9999.000, -9999.000,   1,1.0000
    34,'1 ',   508.000,     0.000,  9999.000, -9999.000,1.01230,     0,   100.000, 0.00000E+0, 8.90000E-2, 0.00000E+0, 0.00000E+0,1.00000,1,  100.0,  9999.000, -9999.000,   1,1.0000
    35,'1 ',   650.000,     0.000,  9999.000, -9999.000,1.04930,     0,   100.000, 0.00000E+0, 4.00000E-2, 0.00000E+0, 0.00000E+0,1.00000,1,  100.0,  9999.000, -9999.000,   1,1.0000
    36,'1 ',   864.000,     0.000,   200.000, -9999.000,1.06350,     0,   100.000, 0.00000E+0, 4.40000E-2, 0.00000E+0, 0.00000E+0,1.00000,1,  100.0,  9999.000, -9999.000,   1,1.0000
    37,'1 ',   540.000,     0.000,  9999.000, -9999.000,1.02780,     0,   100.000, 0.00000E+0, 4.50000E-2, 0.00000E+0, 0.00000E+0,1.00000,1,  100.0,  9999.000, -9999.000,   1,1.0000
    38,'1 ',   830.000,     0.000,  9999.000, -9999.000,1.02650,     0,   100.000, 0.00000E+0, 4.50000E-2, 0.00000E+0, 0.00000E+0,1.00000,1,  100.0,  9999.000, -9999.000,   1,1.0000
    39,'1 ',  1000.000,     0.000,  9999.000, -9999.000,1.03000,     0,   100.000, 0.00000E+0, 4.00000E-3, 0.00000E+0, 0.00000E+0,1.00000,1,  100.0,  9999.000, -9999.000,   1,1.0000
0 / END OF GENERATOR DATA, BEGIN BRANCH DATA
@!   I,     J,'CKT',     R,          X,         B,                    'N A M E'                 ,   RATE1,   RATE2,   RATE3,   RATE4,   RATE5,   RATE6,   RATE7,   RATE8,   RATE9,  RATE10,  RATE11,  RATE12,    GI,       BI,       GJ,       BJ,STAT,MET,  LEN,  O1,  F1,    O2,  F2,    O3,  F3,    O4,  F4
     1,     2,'1 ', 7.00000E-3, 8.22000E-2,   0.34930,'                                        ',    0.00,    0.00,    0.00,    0.00,    0.00,    0.00,    0.00,    0.00,    0.00,    0.00,    0.00,    0.00,  0.00000,  0.00000,  0.00000,  0.00000,1,1,   0.00,   1,1.0000
     1,     2,'2 ', 7.00000E-3, 8.22000E-2,   0.34930,'                                        ',    0.00,    0.00,    0.00,    0.00,    0.00,    0.00,    0.00,    0.00,    0.00,    0.00,    0.00,    0.00,  0.00000,  0.00000,  0.00000,  0.00000,1,1,   0.00,   1,1.0000
     1,    39,'1 ', 2.00000E-3, 5.00000E-2,   0.37500,'                                        ',    0.00,    0.00,    0.00,    0.00,    0.00,    0.00,    0.00,    0.00,    0.00,    0.00,    0.00,    0.00,  0.00000,  0.00000,  0.00000,  0.00000,1,1,   0.00,   1,1.0000
     1,    39,'2 ', 2.00000E-3, 5.00000E-2,   0.37500,'                                        ',    0.00,    0.00,    0.00,    0.00,    0.00,    0.00,    0.00,    0.00,    0.00,    0.00,    0.00,    0.00,  0.00000,  0.00000,  0.00000,  0.00000,1,1,   0.00,   1,1.0000
     2,     3,'1 ', 2.60000E-3, 3.02000E-2,   0.12860,'                                        ',    0.00,    0.00,    0.00,    0.00,    0.00,    0.00,    0.00,    0.00,    0.00,    0.00,    0.00,    0.00,  0.00000,  0.00000,  0.00000,  0.00000,1,1,   0.00,   1,1.0000
     2,     3,'2 ', 2.60000E-3, 3.02000E-2,   0.12860,'                                        ',    0.00,    0.00,    0.00,    0.00,    0.00,    0.00,    0.00,    0.00,    0.00,    0.00,    0.00,    0.00,  0.00000,  0.00000,  0.00000,  0.00000,1,1,   0.00,   1,1.0000
     2,    25,'1 ', 1.40000E-2, 1.72000E-2,   0.07300,'                                        ',    0.00,    0.00,    0.00,    0.00,    0.00,    0.00,    0.00,    0.00,    0.00,    0.00,    0.00,    0.00,  0.00000,  0.00000,  0.00000,  0.00000,1,1,   0.00,   1,1.0000
     2,    25,'2 ', 1.40000E-2, 1.72000E-2,   0.07300,'                                        ',    0.00,    0.00,    0.00,    0.00,    0.00,    0.00,    0.00,    0.00,    0.00,    0.00,    0.00,    0.00,  0.00000,  0.00000,  0.00000,  0.00000,1,1,   0.00,   1,1.0000
     3,     4,'1 ', 2.60000E-3, 4.26000E-2,   0.11070,'                                        ',    0.00,    0.00,    0.00,    0.00,    0.00,    0.00,    0.00,    0.00,    0.00,    0.00,    0.00,    0.00,  0.00000,  0.00000,  0.00000,  0.00000,1,1,   0.00,   1,1.0000
     3,     4,'2 ', 2.60000E-3, 4.26000E-2,   0.11070,'                                        ',    0.00,    0.00,    0.00,    0.00,    0.00,    0.00,    0.00,    0.00,    0.00,    0.00,    0.00,    0.00,  0.00000,  0.00000,  0.00000,  0.00000,1,1,   0.00,   1,1.0000
     3,    18,'1 ', 2.20000E-3, 2.66000E-2,   0.10690,'                                        ',    0.00,    0.00,    0.00,    0.00,    0.00,    0.00,    0.00,    0.00,    0.00,    0.00,    0.00,    0.00,  0.00000,  0.00000,  0.00000,  0.00000,1,1,   0.00,   1,1.0000
     3,    18,'2 ', 2.20000E-3, 2.66000E-2,   0.10690,'                                        ',    0.00,    0.00,    0.00,    0.00,    0.00,    0.00,    0.00,    0.00,    0.00,    0.00,    0.00,    0.00,  0.00000,  0.00000,  0.00000,  0.00000,1,1,   0.00,   1,1.0000
     4,     5,'1 ', 1.60000E-3, 2.56000E-2,   0.06710,'                                        ',    0.00,    0.00,    0.00,    0.00,    0.00,    0.00,    0.00,    0.00,    0.00,    0.00,    0.00,    0.00,  0.00000,  0.00000,  0.00000,  0.00000,1,1,   0.00,   1,1.0000
     4,     5,'2 ', 1.60000E-3, 2.56000E-2,   0.06710,'                                        ',    0.00,    0.00,    0.00,    0.00,    0.00,    0.00,    0.00,    0.00,    0.00,    0.00,    0.00,    0.00,  0.00000,  0.00000,  0.00000,  0.00000,1,1,   0.00,   1,1.0000
     4,    14,'1 ', 1.60000E-3, 2.60000E-2,   0.06910,'                                        ',    0.00,    0.00,    0.00,    0.00,    0.00,    0.00,    0.00,    0.00,    0.00,    0.00,    0.00,    0.00,  0.00000,  0.00000,  0.00000,  0.00000,1,1,   0.00,   1,1.0000
     4,    14,'2 ', 1.60000E-3, 2.60000E-2,   0.06910,'                                        ',    0.00,    0.00,    0.00,    0.00,    0.00,    0.00,    0.00,    0.00,    0.00,    0.00,    0.00,    0.00,  0.00000,  0.00000,  0.00000,  0.00000,1,1,   0.00,   1,1.0000
     5,     6,'1 ', 4.00000E-4, 5.20000E-3,   0.02170,'                                        ',    0.00,    0.00,    0.00,    0.00,    0.00,    0.00,    0.00,    0.00,    0.00,    0.00,    0.00,    0.00,  0.00000,  0.00000,  0.00000,  0.00000,1,1,   0.00,   1,1.0000
     5,     6,'2 ', 4.00000E-4, 5.20000E-3,   0.02170,'                                        ',    0.00,    0.00,    0.00,    0.00,    0.00,    0.00,    0.00,    0.00,    0.00,    0.00,    0.00,    0.00,  0.00000,  0.00000,  0.00000,  0.00000,1,1,   0.00,   1,1.0000
     5,     8,'1 ', 1.60000E-3, 2.24000E-2,   0.07380,'                                        ',    0.00,    0.00,    0.00,    0.00,    0.00,    0.00,    0.00,    0.00,    0.00,    0.00,    0.00,    0.00,  0.00000,  0.00000,  0.00000,  0.00000,1,1,   0.00,   1,1.0000
     5,     8,'2 ', 1.60000E-3, 2.24000E-2,   0.07380,'                                        ',    0.00,    0.00,    0.00,    0.00,    0.00,    0.00,    0.00,    0.00,    0.00,    0.00,    0.00,    0.00,  0.00000,  0.00000,  0.00000,  0.00000,1,1,   0.00,   1,1.0000
     6,     7,'1 ', 1.20000E-3, 1.84000E-2,   0.05650,'                                        ',    0.00,    0.00,    0.00,    0.00,    0.00,    0.00,    0.00,    0.00,    0.00,    0.00,    0.00,    0.00,  0.00000,  0.00000,  0.00000,  0.00000,1,1,   0.00,   1,1.0000
     6,     7,'2 ', 1.20000E-3, 1.84000E-2,   0.05650,'                                        ',    0.00,    0.00,    0.00,    0.00,    0.00,    0.00,    0.00,    0.00,    0.00,    0.00,    0.00,    0.00,  0.00000,  0.00000,  0.00000,  0.00000,1,1,   0.00,   1,1.0000
     6,    11,'1 ', 1.40000E-3, 1.64000E-2,   0.06940,'                                        ',    0.00,    0.00,    0.00,    0.00,    0.00,    0.00,    0.00,    0.00,    0.00,    0.00,    0.00,    0.00,  0.00000,  0.00000,  0.00000,  0.00000,1,1,   0.00,   1,1.0000
     6,    11,'2 ', 1.40000E-3, 1.64000E-2,   0.06940,'                                        ',    0.00,    0.00,    0.00,    0.00,    0.00,    0.00,    0.00,    0.00,    0.00,    0.00,    0.00,    0.00,  0.00000,  0.00000,  0.00000,  0.00000,1,1,   0.00,   1,1.0000
     7,     8,'1 ', 8.00000E-4, 9.20000E-3,   0.03900,'                                        ',    0.00,    0.00,    0.00,    0.00,    0.00,    0.00,    0.00,    0.00,    0.00,    0.00,    0.00,    0.00,  0.00000,  0.00000,  0.00000,  0.00000,1,1,   0.00,   1,1.0000
     7,     8,'2 ', 8.00000E-4, 9.20000E-3,   0.03900,'                                        ',    0.00,    0.00,    0.00,    0.00,    0.00,    0.00,    0.00,    0.00,    0.00,    0.00,    0.00,    0.00,  0.00000,  0.00000,  0.00000,  0.00000,1,1,   0.00,   1,1.0000
     8,     9,'1 ', 4.60000E-3, 7.26000E-2,   0.19020,'                                        ',    0.00,    0.00,    0.00,    0.00,    0.00,    0.00,    0.00,    0.00,    0.00,    0.00,    0.00,    0.00,  0.00000,  0.00000,  0.00000,  0.00000,1,1,   0.00,   1,1.0000
     8,     9,'2 ', 4.60000E-3, 7.26000E-2,   0.19020,'                                        ',    0.00,    0.00,    0.00,    0.00,    0.00,    0.00,    0.00,    0.00,    0.00,    0.00,    0.00,    0.00,  0.00000,  0.00000,  0.00000,  0.00000,1,1,   0.00,   1,1.0000
     9,    39,'1 ', 2.00000E-3, 5.00000E-2,   0.60000,'                                        ',    0.00,    0.00,    0.00,    0.00,    0.00,    0.00,    0.00,    0.00,    0.00,    0.00,    0.00,    0.00,  0.00000,  0.00000,  0.00000,  0.00000,1,1,   0.00,   1,1.0000
     9,    39,'2 ', 2.00000E-3, 5.00000E-2,   0.60000,'                                        ',    0.00,    0.00,    0.00,    0.00,    0.00,    0.00,    0.00,    0.00,    0.00,    0.00,    0.00,    0.00,  0.00000,  0.00000,  0.00000,  0.00000,1,1,   0.00,   1,1.0000
    10,    11,'1 ', 8.00000E-4, 8.60000E-3,   0.03650,'                                        ',    0.00,    0.00,    0.00,    0.00,    0.00,    0.00,    0.00,    0.00,    0.00,    0.00,    0.00,    0.00,  0.00000,  0.00000,  0.00000,  0.00000,1,1,   0.00,   1,1.0000
    10,    11,'2 ', 8.00000E-4, 8.60000E-3,   0.03650,'                                        ',    0.00,    0.00,    0.00,    0.00,    0.00,    0.00,    0.00,    0.00,    0.00,    0.00,    0.00,    0.00,  0.00000,  0.00000,  0.00000,  0.00000,1,1,   0.00,   1,1.0000
    10,    13,'1 ', 8.00000E-4, 8.60000E-3,   0.03650,'                                        ',    0.00,    0.00,    0.00,    0.00,    0.00,    0.00,    0.00,    0.00,    0.00,    0.00,    0.00,    0.00,  0.00000,  0.00000,  0.00000,  0.00000,1,1,   0.00,   1,1.0000
    10,    13,'2 ', 8.00000E-4, 8.60000E-3,   0.03650,'                                        ',    0.00,    0.00,    0.00,    0.00,    0.00,    0.00,    0.00,    0.00,    0.00,    0.00,    0.00,    0.00,  0.00000,  0.00000,  0.00000,  0.00000,1,1,   0.00,   1,1.0000
    13,    14,'1 ', 1.80000E-3, 2.02000E-2,   0.08620,'                                        ',    0.00,    0.00,    0.00,    0.00,    0.00,    0.00,    0.00,    0.00,    0.00,    0.00,    0.00,    0.00,  0.00000,  0.00000,  0.00000,  0.00000,1,1,   0.00,   1,1.0000
    13,    14,'2 ', 1.80000E-3, 2.02000E-2,   0.08620,'                                        ',    0.00,    0.00,    0.00,    0.00,    0.00,    0.00,    0.00,    0.00,    0.00,    0.00,    0.00,    0.00,  0.00000,  0.00000,  0.00000,  0.00000,1,1,   0.00,   1,1.0000
    14,    15,'1 ', 3.60000E-3, 4.34000E-2,   0.18300,'                                        ',    0.00,    0.00,    0.00,    0.00,    0.00,    0.00,    0.00,    0.00,    0.00,    0.00,    0.00,    0.00,  0.00000,  0.00000,  0.00000,  0.00000,1,1,   0.00,   1,1.0000
    14,    15,'2 ', 3.60000E-3, 4.34000E-2,   0.18300,'                                        ',    0.00,    0.00,    0.00,    0.00,    0.00,    0.00,    0.00,    0.00,    0.00,    0.00,    0.00,    0.00,  0.00000,  0.00000,  0.00000,  0.00000,1,1,   0.00,   1,1.0000
    15,    16,'1 ', 1.80000E-3, 1.88000E-2,   0.08550,'                                        ',    0.00,    0.00,    0.00,    0.00,    0.00,    0.00,    0.00,    0.00,    0.00,    0.00,    0.00,    0.00,  0.00000,  0.00000,  0.00000,  0.00000,1,1,   0.00,   1,1.0000
    15,    16,'2 ', 1.80000E-3, 1.88000E-2,   0.08550,'                                        ',    0.00,    0.00,    0.00,    0.00,    0.00,    0.00,    0.00,    0.00,    0.00,    0.00,    0.00,    0.00,  0.00000,  0.00000,  0.00000,  0.00000,1,1,   0.00,   1,1.0000
    16,    17,'1 ', 1.40000E-3, 1.78000E-2,   0.06710,'                                        ',    0.00,    0.00,    0.00,    0.00,    0.00,    0.00,    0.00,    0.00,    0.00,    0.00,    0.00,    0.00,  0.00000,  0.00000,  0.00000,  0.00000,1,1,   0.00,   1,1.0000
    16,    17,'2 ', 1.40000E-3, 1.78000E-2,   0.06710,'                                        ',    0.00,    0.00,    0.00,    0.00,    0.00,    0.00,    0.00,    0.00,    0.00,    0.00,    0.00,    0.00,  0.00000,  0.00000,  0.00000,  0.00000,1,1,   0.00,   1,1.0000
    16,    19,'1 ', 3.20000E-3, 3.90000E-2,   0.15200,'                                        ',    0.00,    0.00,    0.00,    0.00,    0.00,    0.00,    0.00,    0.00,    0.00,    0.00,    0.00,    0.00,  0.00000,  0.00000,  0.00000,  0.00000,1,1,   0.00,   1,1.0000
    16,    19,'2 ', 3.20000E-3, 3.90000E-2,   0.15200,'                                        ',    0.00,    0.00,    0.00,    0.00,    0.00,    0.00,    0.00,    0.00,    0.00,    0.00,    0.00,    0.00,  0.00000,  0.00000,  0.00000,  0.00000,1,1,   0.00,   1,1.0000
    16,    21,'1 ', 1.60000E-3, 2.70000E-2,   0.12740,'                                        ',    0.00,    0.00,    0.00,    0.00,    0.00,    0.00,    0.00,    0.00,    0.00,    0.00,    0.00,    0.00,  0.00000,  0.00000,  0.00000,  0.00000,1,1,   0.00,   1,1.0000
    16,    21,'2 ', 1.60000E-3, 2.70000E-2,   0.12740,'                                        ',    0.00,    0.00,    0.00,    0.00,    0.00,    0.00,    0.00,    0.00,    0.00,    0.00,    0.00,    0.00,  0.00000,  0.00000,  0.00000,  0.00000,1,1,   0.00,   1,1.0000
    16,    24,'1 ', 6.00000E-3, 1.18000E-2,   0.03400,'                                        ',    0.00,    0.00,    0.00,    0.00,    0.00,    0.00,    0.00,    0.00,    0.00,    0.00,    0.00,    0.00,  0.00000,  0.00000,  0.00000,  0.00000,1,1,   0.00,   1,1.0000
    16,    24,'2 ', 6.00000E-3, 1.18000E-2,   0.03400,'                                        ',    0.00,    0.00,    0.00,    0.00,    0.00,    0.00,    0.00,    0.00,    0.00,    0.00,    0.00,    0.00,  0.00000,  0.00000,  0.00000,  0.00000,1,1,   0.00,   1,1.0000
    17,    18,'1 ', 1.40000E-3, 1.64000E-2,   0.06590,'                                        ',    0.00,    0.00,    0.00,    0.00,    0.00,    0.00,    0.00,    0.00,    0.00,    0.00,    0.00,    0.00,  0.00000,  0.00000,  0.00000,  0.00000,1,1,   0.00,   1,1.0000
    17,    18,'2 ', 1.40000E-3, 1.64000E-2,   0.06590,'                                        ',    0.00,    0.00,    0.00,    0.00,    0.00,    0.00,    0.00,    0.00,    0.00,    0.00,    0.00,    0.00,  0.00000,  0.00000,  0.00000,  0.00000,1,1,   0.00,   1,1.0000
    17,    27,'1 ', 2.60000E-3, 3.46000E-2,   0.16080,'                                        ',    0.00,    0.00,    0.00,    0.00,    0.00,    0.00,    0.00,    0.00,    0.00,    0.00,    0.00,    0.00,  0.00000,  0.00000,  0.00000,  0.00000,1,1,   0.00,   1,1.0000
    17,    27,'2 ', 2.60000E-3, 3.46000E-2,   0.16080,'                                        ',    0.00,    0.00,    0.00,    0.00,    0.00,    0.00,    0.00,    0.00,    0.00,    0.00,    0.00,    0.00,  0.00000,  0.00000,  0.00000,  0.00000,1,1,   0.00,   1,1.0000
    21,    22,'1 ', 1.60000E-3, 2.80000E-2,   0.12830,'                                        ',    0.00,    0.00,    0.00,    0.00,    0.00,    0.00,    0.00,    0.00,    0.00,    0.00,    0.00,    0.00,  0.00000,  0.00000,  0.00000,  0.00000,1,1,   0.00,   1,1.0000
    21,    22,'2 ', 1.60000E-3, 2.80000E-2,   0.12830,'                                        ',    0.00,    0.00,    0.00,    0.00,    0.00,    0.00,    0.00,    0.00,    0.00,    0.00,    0.00,    0.00,  0.00000,  0.00000,  0.00000,  0.00000,1,1,   0.00,   1,1.0000
    22,    23,'1 ', 1.20000E-3, 1.92000E-2,   0.09230,'                                        ',    0.00,    0.00,    0.00,    0.00,    0.00,    0.00,    0.00,    0.00,    0.00,    0.00,    0.00,    0.00,  0.00000,  0.00000,  0.00000,  0.00000,1,1,   0.00,   1,1.0000
    22,    23,'2 ', 1.20000E-3, 1.92000E-2,   0.09230,'                                        ',    0.00,    0.00,    0.00,    0.00,    0.00,    0.00,    0.00,    0.00,    0.00,    0.00,    0.00,    0.00,  0.00000,  0.00000,  0.00000,  0.00000,1,1,   0.00,   1,1.0000
    23,    24,'1 ', 4.40000E-3, 7.00000E-2,   0.18050,'                                        ',    0.00,    0.00,    0.00,    0.00,    0.00,    0.00,    0.00,    0.00,    0.00,    0.00,    0.00,    0.00,  0.00000,  0.00000,  0.00000,  0.00000,1,1,   0.00,   1,1.0000
    23,    24,'2 ', 4.40000E-3, 7.00000E-2,   0.18050,'                                        ',    0.00,    0.00,    0.00,    0.00,    0.00,    0.00,    0.00,    0.00,    0.00,    0.00,    0.00,    0.00,  0.00000,  0.00000,  0.00000,  0.00000,1,1,   0.00,   1,1.0000
    25,    26,'1 ', 6.40000E-3, 6.46000E-2,   0.25650,'                                        ',    0.00,    0.00,    0.00,    0.00,    0.00,    0.00,    0.00,    0.00,    0.00,    0.00,    0.00,    0.00,  0.00000,  0.00000,  0.00000,  0.00000,1,1,   0.00,   1,1.0000
    25,    26,'2 ', 6.40000E-3, 6.46000E-2,   0.25650,'                                        ',    0.00,    0.00,    0.00,    0.00,    0.00,    0.00,    0.00,    0.00,    0.00,    0.00,    0.00,    0.00,  0.00000,  0.00000,  0.00000,  0.00000,1,1,   0.00,   1,1.0000
    26,    27,'1 ', 2.80000E-3, 2.94000E-2,   0.11980,'                                        ',    0.00,    0.00,    0.00,    0.00,    0.00,    0.00,    0.00,    0.00,    0.00,    0.00,    0.00,    0.00,  0.00000,  0.00000,  0.00000,  0.00000,1,1,   0.00,   1,1.0000
    26,    27,'2 ', 2.80000E-3, 2.94000E-2,   0.11980,'                                        ',    0.00,    0.00,    0.00,    0.00,    0.00,    0.00,    0.00,    0.00,    0.00,    0.00,    0.00,    0.00,  0.00000,  0.00000,  0.00000,  0.00000,1,1,   0.00,   1,1.0000
    26,    28,'1 ', 8.60000E-3, 9.48000E-2,   0.39010,'                                        ',    0.00,    0.00,    0.00,    0.00,    0.00,    0.00,    0.00,    0.00,    0.00,    0.00,    0.00,    0.00,  0.00000,  0.00000,  0.00000,  0.00000,1,1,   0.00,   1,1.0000
    26,    28,'2 ', 8.60000E-3, 9.48000E-2,   0.39010,'                                        ',    0.00,    0.00,    0.00,    0.00,    0.00,    0.00,    0.00,    0.00,    0.00,    0.00,    0.00,    0.00,  0.00000,  0.00000,  0.00000,  0.00000,1,1,   0.00,   1,1.0000
    26,    29,'1 ', 1.14000E-2, 1.25000E-1,   0.51450,'                                        ',    0.00,    0.00,    0.00,    0.00,    0.00,    0.00,    0.00,    0.00,    0.00,    0.00,    0.00,    0.00,  0.00000,  0.00000,  0.00000,  0.00000,1,1,   0.00,   1,1.0000
    26,    29,'2 ', 1.14000E-2, 1.25000E-1,   0.51450,'                                        ',    0.00,    0.00,    0.00,    0.00,    0.00,    0.00,    0.00,    0.00,    0.00,    0.00,    0.00,    0.00,  0.00000,  0.00000,  0.00000,  0.00000,1,1,   0.00,   1,1.0000
    28,    29,'1 ', 2.80000E-3, 3.02000E-2,   0.12450,'                                        ',    0.00,    0.00,    0.00,    0.00,    0.00,    0.00,    0.00,    0.00,    0.00,    0.00,    0.00,    0.00,  0.00000,  0.00000,  0.00000,  0.00000,1,1,   0.00,   1,1.0000
    28,    29,'2 ', 2.80000E-3, 3.02000E-2,   0.12450,'                                        ',    0.00,    0.00,    0.00,    0.00,    0.00,    0.00,    0.00,    0.00,    0.00,    0.00,    0.00,    0.00,  0.00000,  0.00000,  0.00000,  0.00000,1,1,   0.00,   1,1.0000
0 / END OF BRANCH DATA, BEGIN SYSTEM SWITCHING DEVICE DATA
@!   I,     J,'CKT',          X,   RATE1,   RATE2,   RATE3,   RATE4,   RATE5,   RATE6,   RATE7,   RATE8,   RATE9,  RATE10,  RATE11,  RATE12, STAT,NSTAT,  MET,STYPE,'NAME'
0 / END OF SYSTEM SWITCHING DEVICE DATA, BEGIN TRANSFORMER DATA
@!   I,     J,     K,'CKT',CW,CZ,CM,    MAG1,       MAG2,NMETR,               'N A M E',               STAT,O1,  F1,    O2,  F2,    O3,  F3,    O4,  F4,     'VECGRP', ZCOD
@!   R1-2,       X1-2,   SBASE1-2,     R2-3,       X2-3,   SBASE2-3,     R3-1,       X3-1,   SBASE3-1, VMSTAR,   ANSTAR
@!WINDV1,  NOMV1,    ANG1,  RATE1-1,  RATE1-2,  RATE1-3,  RATE1-4,  RATE1-5,  RATE1-6,  RATE1-7,  RATE1-8,  RATE1-9, RATE1-10, RATE1-11, RATE1-12,COD1,CONT1,   RMA1,    RMI1,    VMA1,    VMI1, NTP1,TAB1,  CR1,     CX1,   CNXA1
@!WINDV2,  NOMV2,    ANG2,  RATE2-1,  RATE2-2,  RATE2-3,  RATE2-4,  RATE2-5,  RATE2-6,  RATE2-7,  RATE2-8,  RATE2-9, RATE2-10, RATE2-11, RATE2-12,COD2,CONT2,   RMA2,    RMI2,    VMA2,    VMI2, NTP2,TAB2,  CR2,     CX2,   CNXA2
@!WINDV3,  NOMV3,    ANG3,  RATE3-1,  RATE3-2,  RATE3-3,  RATE3-4,  RATE3-5,  RATE3-6,  RATE3-7,  RATE3-8,  RATE3-9, RATE3-10, RATE3-11, RATE3-12,COD3,CONT3,   RMA3,    RMI3,    VMA3,    VMI3, NTP3,TAB3,  CR3,     CX3,   CNXA3
     2,    30,     0,'1 ', 1, 1, 1, 0.00000E+0, 0.00000E+0,2,'                                        ',1,   1,1.0000,   0,1.0000,   0,1.0000,   0,1.0000,'            '
 0.00000E+0, 1.81000E-2,   100.00
1.02500,   0.000,   0.000,     0.00,     0.00,     0.00,     0.00,     0.00,     0.00,     0.00,     0.00,     0.00,     0.00,     0.00,     0.00, 0,      0, 1.10000, 0.90000, 1.10000, 0.90000,  33, 0, 0.00000, 0.00000,  0.000
1.00000,   0.000
     6,    31,     0,'1 ', 1, 1, 1, 0.00000E+0, 0.00000E+0,2,'                                        ',1,   1,1.0000,   0,1.0000,   0,1.0000,   0,1.0000,'            '
 0.00000E+0, 2.50000E-2,   100.00
1.07000,   0.000,   0.000,     0.00,     0.00,     0.00,     0.00,     0.00,     0.00,     0.00,     0.00,     0.00,     0.00,     0.00,     0.00, 0,      0, 1.10000, 0.90000, 1.10000, 0.90000,  33, 0, 0.00000, 0.00000,  0.000
1.00000,   0.000
    10,    32,     0,'1 ', 1, 1, 1, 0.00000E+0, 0.00000E+0,2,'                                        ',1,   1,1.0000,   0,1.0000,   0,1.0000,   0,1.0000,'            '
 0.00000E+0, 2.00000E-2,   100.00
1.07000,   0.000,   0.000,     0.00,     0.00,     0.00,     0.00,     0.00,     0.00,     0.00,     0.00,     0.00,     0.00,     0.00,     0.00, 0,      0, 1.10000, 0.90000, 1.10000, 0.90000,  33, 0, 0.00000, 0.00000,  0.000
1.00000,   0.000
    12,    11,     0,'1 ', 1, 1, 1, 0.00000E+0, 0.00000E+0,2,'                                        ',1,   1,1.0000,   0,1.0000,   0,1.0000,   0,1.0000,'            '
 1.60000E-3, 4.35000E-2,   100.00
1.00600,   0.000,   0.000,     0.00,     0.00,     0.00,     0.00,     0.00,     0.00,     0.00,     0.00,     0.00,     0.00,     0.00,     0.00, 0,      0, 1.10000, 0.90000, 1.10000, 0.90000,  33, 0, 0.00000, 0.00000,  0.000
1.00000,   0.000
    12,    13,     0,'1 ', 1, 1, 1, 0.00000E+0, 0.00000E+0,2,'                                        ',1,   1,1.0000,   0,1.0000,   0,1.0000,   0,1.0000,'            '
 1.60000E-3, 4.35000E-2,   100.00
1.00600,   0.000,   0.000,     0.00,     0.00,     0.00,     0.00,     0.00,     0.00,     0.00,     0.00,     0.00,     0.00,     0.00,     0.00, 0,      0, 1.10000, 0.90000, 1.10000, 0.90000,  33, 0, 0.00000, 0.00000,  0.000
1.00000,   0.000
    19,    20,     0,'1 ', 1, 1, 1, 0.00000E+0, 0.00000E+0,2,'                                        ',1,   1,1.0000,   0,1.0000,   0,1.0000,   0,1.0000,'            '
 7.00000E-4, 1.38000E-2,   100.00
1.06000,   0.000,   0.000,     0.00,     0.00,     0.00,     0.00,     0.00,     0.00,     0.00,     0.00,     0.00,     0.00,     0.00,     0.00, 0,      0, 1.10000, 0.90000, 1.10000, 0.90000,  33, 0, 0.00000, 0.00000,  0.000
1.00000,   0.000
    19,    33,     0,'1 ', 1, 1, 1, 0.00000E+0, 0.00000E+0,2,'                                        ',1,   1,1.0000,   0,1.0000,   0,1.0000,   0,1.0000,'            '
 7.00000E-4, 1.42000E-2,   100.00
1.07000,   0.000,   0.000,     0.00,     0.00,     0.00,     0.00,     0.00,     0.00,     0.00,     0.00,     0.00,     0.00,     0.00,     0.00, 0,      0, 1.10000, 0.90000, 1.10000, 0.90000,  33, 0, 0.00000, 0.00000,  0.000
1.00000,   0.000
    20,    34,     0,'1 ', 1, 1, 1, 0.00000E+0, 0.00000E+0,2,'                                        ',1,   1,1.0000,   0,1.0000,   0,1.0000,   0,1.0000,'            '
 9.00000E-4, 1.80000E-2,   100.00
1.00900,   0.000,   0.000,     0.00,     0.00,     0.00,     0.00,     0.00,     0.00,     0.00,     0.00,     0.00,     0.00,     0.00,     0.00, 0,      0, 1.10000, 0.90000, 1.10000, 0.90000,  33, 0, 0.00000, 0.00000,  0.000
1.00000,   0.000
    22,    35,     0,'1 ', 1, 1, 1, 0.00000E+0, 0.00000E+0,2,'                                        ',1,   1,1.0000,   0,1.0000,   0,1.0000,   0,1.0000,'            '
 0.00000E+0, 1.43000E-2,   100.00
1.02500,   0.000,   0.000,     0.00,     0.00,     0.00,     0.00,     0.00,     0.00,     0.00,     0.00,     0.00,     0.00,     0.00,     0.00, 0,      0, 1.10000, 0.90000, 1.10000, 0.90000,  33, 0, 0.00000, 0.00000,  0.000
1.00000,   0.000
    23,    36,     0,'1 ', 1, 1, 1, 0.00000E+0, 0.00000E+0,2,'                                        ',1,   1,1.0000,   0,1.0000,   0,1.0000,   0,1.0000,'            '
 5.00000E-4, 2.72000E-2,   100.00
1.00000,   0.000,   0.000,     0.00,     0.00,     0.00,     0.00,     0.00,     0.00,     0.00,     0.00,     0.00,     0.00,     0.00,     0.00, 0,      0, 1.10000, 0.90000, 1.10000, 0.90000,  33, 0, 0.00000, 0.00000,  0.000
1.00000,   0.000
    25,    37,     0,'1 ', 1, 1, 1, 0.00000E+0, 0.00000E+0,2,'                                        ',1,   1,1.0000,   0,1.0000,   0,1.0000,   0,1.0000,'            '
 6.00000E-4, 2.32000E-2,   100.00
1.02500,   0.000,   0.000,     0.00,     0.00,     0.00,     0.00,     0.00,     0.00,     0.00,     0.00,     0.00,     0.00,     0.00,     0.00, 0,      0, 1.10000, 0.90000, 1.10000, 0.90000,  33, 0, 0.00000, 0.00000,  0.000
1.00000,   0.000
    29,    38,     0,'1 ', 1, 1, 1, 0.00000E+0, 0.00000E+0,2,'                                        ',1,   1,1.0000,   0,1.0000,   0,1.0000,   0,1.0000,'            '
 8.00000E-4, 1.56000E-2,   100.00
1.02500,   0.000,   0.000,     0.00,     0.00,     0.00,     0.00,     0.00,     0.00,     0.00,     0.00,     0.00,     0.00,     0.00,     0.00, 0,      0, 1.10000, 0.90000, 1.10000, 0.90000,  33, 0, 0.00000, 0.00000,  0.000
1.00000,   0.000
0 / END OF TRANSFORMER DATA, BEGIN AREA DATA
@! I,   ISW,     PDES,      PTOL,    'ARNAME'
0 / END OF AREA DATA, BEGIN TWO-TERMINAL DC DATA
@!  'NAME',   MDC,     RDC,      SETVL,     VSCHD,     VCMOD,     RCOMP,    DELTI,METER    DCVMIN,CCCITMX, CCCACC
@! IPR,NBR,ANMXR,ANMNR,   RCR,    XCR,  EBASR,  TRR,    TAPR,   TMXR,   TMNR,   STPR,    ICR,   IFR,   ITR,'IDR', XCAPR
@! IPI,NBI,ANMXI,ANMNI,   RCI,    XCI,  EBASI,  TRI,    TAPI,   TMXI,   TMNI,   STPI,    ICI,   IFI,   ITI,'IDI', XCAPI
0 / END OF TWO-TERMINAL DC DATA, BEGIN VSC DC LINE DATA
@!  'NAME',   MDC,     RDC,   O1,  F1,    O2,  F2,    O3,  F3,    O4,  F4
@!IBUS,TYPE,MODE,     DCSET,   ACSET,     ALOSS,     BLOSS,   MINLOSS,     SMAX,      IMAX,   PWF,        MAXQ,      MINQ, REMOT,  RMPCT
0 / END OF VSC DC LINE DATA, BEGIN IMPEDANCE CORRECTION DATA
@!I,   T1,    Re(F1),  Im(F1),    T2,    Re(F2),  Im(F2),    T3,    Re(F3),  Im(F3),    T4,    Re(F4),  Im(F4),    T5,    Re(F5),  Im(F5),    T6,    Re(F6),  Im(F6)
@!     T7,    Re(F7),  Im(F7),    T8,    Re(F8),  Im(F8),    T9,    Re(F9),  Im(F9),    T10,  Re(F10), Im(F10),    T11,  Re(F11), Im(F11),    T12,  Re(F12), Im(F12)
@!      ...
0 / END OF IMPEDANCE CORRECTION DATA, BEGIN MULTI-TERMINAL DC DATA
@!  'NAME',    NCONV,NDCBS,NDCLN,  MDC, VCONV,     VCMOD, VCONVN
@!  IB, N,ANGMX,ANGMN,    RC,      XC,    EBAS,   TR,    TAP,    TPMX,   TPMN,   TSTP,     SETVL,   DCPF,    MARG,CNVCOD
@!IDC, IB,AREA,ZONE,   'DCNAME',  IDC2,   RGRND,OWNER
@!IDC,JDC,'DCCKT',MET,   RDC,        LDC
0 / END OF MULTI-TERMINAL DC DATA, BEGIN MULTI-SECTION LINE DATA
@!   I,     J,'ID',MET,DUM1,  DUM2,  DUM3,  DUM4,  DUM5,  DUM6,  DUM7,  DUM8,  DUM9
0 / END OF MULTI-SECTION LINE DATA, BEGIN ZONE DATA
@! I,   'ZONAME'
0 / END OF ZONE DATA, BEGIN INTER-AREA TRANSFER DATA
@!ARFROM,ARTO,'TRID', PTRAN
0 / END OF INTER-AREA TRANSFER DATA, BEGIN OWNER DATA
@! I,   'OWNAME'
0 / END OF OWNER DATA, BEGIN FACTS DEVICE DATA
@!  'NAME',         I,     J,MODE,   PDES,      QDES,  VSET,      SHMX,      TRMX,   VTMN,   VTMX,   VSMX,      IMX,     LINX,   RMPCT,OWNER,    SET1,      SET2,VSREF, REMOT,   'MNAME'
0 / END OF FACTS DEVICE DATA, BEGIN SWITCHED SHUNT DATA
@!  I,MODSW,ADJM,ST, VSWHI,  VSWLO, SWREM,  RMPCT,   'RMIDNT',      BINIT,N1,     B1, N2,     B2, N3,     B3, N4,     B4, N5,     B5, N6,     B6, N7,     B7, N8,     B8
0 / END OF SWITCHED SHUNT DATA, BEGIN GNE DATA
@!  'NAME',        'MODEL',     NTERM,BUS1...BUSNTERM,NREAL,NINTG,NCHAR
@!ST,OWNER,NMETR
@! REAL1...REAL(MIN(10,NREAL))
@! INTG1...INTG(MIN(10,NINTG))
@! CHAR1...CHAR(MIN(10,NCHAR))
0 / END OF GNE DATA, BEGIN INDUCTION MACHINE DATA
@!   I,'ID',ST,SC,DC,AREA,ZONE,OWNER,TC,BC,  MBASE, RATEKV,PC,  PSET,      H,       A,       B,       D,       E,     RA,        XA,        XM,        R1,        X1,        R2,        X2,        X3,       E1,    SE1,   E2,    SE2,   IA1,   IA2, XAMULT
0 / END OF INDUCTION MACHINE DATA, BEGIN SUBSTATION DATA
0 / END OF SUBSTATION DATA
Q
